cps/model/matpower/case39.m
function mpc = case39
mpc.version = '2';
mpc.baseMVA = 100;
mpc.bus =[
	1	1	1201.1882	1201.5148	0	0	2	1.3999121	-2.6448629	345	1	1.06	0.94;
	2	1	1201.902	1202.2074	0	0	2	1.5052642	-2.4926727	345	1	1.06	0.94;
	3	1	1202.0452	1201.213	0	0	2	1.4968708	-3.8944683	345	1	1.06	0.94;
	4	1	1200.415	1202.8746	0	0	1	1.4419396	-4.8737016	345	1	1.06	0.94;
	5	1	1201.9875	1202.9283	0	0	1	1.4021759	-5.2009978	345	1	1.06	0.94;
	6	1	1202.7921	1202.9392	0	0	1	1.4035065	-4.9315143	345	1	1.06	0.94;
	7	1	1202.8417	1200.517	0	0	1	1.3828694	-5.7062502	345	1	1.06	0.94;
	8	1	1201.5551	1200.6447	0	0	1	1.3810681	-5.7018704	345	1	1.06	0.94;
	9	1	1202.948	1202.9733	0	0	1	1.3543657	-4.0446677	345	1	1.06	0.94;
	10	1	30.983677	31.358673	0	0	1	1.442418	-3.6621675	345	1	1.06	0.94;
	11	1	30.203926	31.92326	0	0	1	1.4299005	-4.089663	345	1	1.06	0.94;
	12	1	8.9820557	88.750793	0	0	1	1.4475976	-3.9662156	345	1	1.06	0.94;
	13	1	30.490406	32.298679	0	0	1	1.4496962	-3.8235745	345	1	1.06	0.94;
	14	1	30.734186	30.737459	0	0	1	1.4684319	-4.127305	345	1	1.06	0.94;
	15	1	320.22131	155.4043	0	0	3	1.543319	-3.4654591	345	1	1.06	0.94;
	16	1	329.5061	34.568417	0	0	3	1.5741506	-3.0040953	345	1	1.06	0.94;
	17	1	30.259182	31.968325	0	0	2	1.568066	-3.2943416	345	1	1.06	0.94;
	18	1	158.37552	30.582731	0	0	2	1.5420328	-3.5740695	345	1	1.06	0.94;
	19	1	30.973215	30.15238	0	0	3	1.6149919	-1.5652065	345	1	1.06	0.94;
	20	1	680.13788	103.6758	0	0	3	1.5308222	-1.431422	345	1	1.06	0.94;
	21	1	274.63898	116.4516	0	0	3	1.5877223	-2.3526654	345	1	1.06	0.94;
	22	1	30.49836	32.636173	0	0	3	1.5984954	-1.4522879	345	1	1.06	0.94;
	23	4	247.83224	85.823761	0	0	3	1.3327762	13.231323	345	1	1.06	0.94;
	24	1	309.11493	-90.393188	0	0	3	1.5750898	-3.1143661	345	1	1.06	0.94;
	25	1	224.45761	48.90065	0	0	2	1.5453686	-2.5029209	345	1	1.06	0.94;
	26	1	139.06189	18.498587	0	0	2	1.6281461	-2.8330948	345	1	1.06	0.94;
	27	1	281.68338	75.964821	0	0	2	1.6032443	-3.1801803	345	1	1.06	0.94;
	28	1	206.59827	29.578926	0	0	3	1.6811031	-2.0572822	345	1	1.06	0.94;
	29	1	283.6149	28.799706	0	0	3	1.6855952	-1.5836716	345	1	1.06	0.94;
	30	3	0	0	0	0	2	1.4784168	-0.51667291	345	1	1.06	0.94;
	31	3	9.2	4.6	0	0	1	1.332708	-0.50618339	345	1	1.06	0.94;
	32	3	0	0	0	0	1	1.358611	-0.51488745	345	1	1.06	0.94;
	33	3	0	0	0	0	3	1.5219399	-0.51472557	345	1	1.06	0.94;
	34	3	0	0	0	0	3	1.521933	-0.51461297	345	1	1.06	0.94;
	35	3	0	0	0	0	3	1.5667967	-0.51394653	345	1	1.06	0.94;
	36	3	0	0	0	0	3	1.0	-0.51464212	345	1	1.06	0.94;
	37	3	0	0	0	0	2	1.5097513	-0.52171296	345	1	1.06	0.94;
	38	3	0	0	0	0	3	1.6472586	-0.52215159	345	1	1.06	0.94;
	39	3	1104	250	0	0	1	1.3561547	-0.51650429	345	1	1.06	0.94;
];
mpc.gen = [
	30	690.66718	400.0	400	140	1.0499	100	1	1040	0	0	0	0	0	0	0	0	0	0	0	0;
	31	646.0	262.04892	300	-100	0.982	100	1	646	0	0	0	0	0	0	0	0	0	0	0	0;
	32	642.51031	265.50531	300	150	0.9841	100	1	725	0	0	0	0	0	0	0	0	0	0	0	0;
	33	487.07059	249.99997	250	0	0.9972	100	1	652	0	0	0	0	0	0	0	0	0	0	0	0;
	34	365.2113	180.5518	167	0	1.0123	100	1	508	0	0	0	0	0	0	0	0	0	0	0	0;
	35	493.20969	299.99997	300	-100	1.0494	100	1	687	0	0	0	0	0	0	0	0	0	0	0	0;
	36	238.1833	98.558609	240	0	1.0636	100	1	580	0	0	0	0	0	0	0	0	0	0	0	0;
	37	508.77927	250.0	250	0	1.0275	100	1	564	0	0	0	0	0	0	0	0	0	0	0	0;
	38	605.66553	300.0	300	-150	1.0265	100	1	865	0	0	0	0	0	0	0	0	0	0	0	0;
	39	1100.0	-100.0	300	-100	1.03	100	1	1100	0	0	0	0	0	0	0	0	0	0	0	0;
];
mpc.branch =[
	1	2	0.0035	0.0411	0.6987	600	600	600	0	0	1	-360	360;
	1	39	0.001	0.025	0.75	1000	1000	1000	0	0	1	-360	360;
	2	3	0.0013	0.0151	0.2572	500	500	500	0	0	1	-360	360;
	2	25	0.007	0.0086	0.146	500	500	500	0	0	1	-360	360;
	2	30	0	0.0181	0	900	900	2500	1.025	0	1	-360	360;
	3	4	0.0013	0.0213	0.2214	500	500	500	0	0	1	-360	360;
	3	18	0.0011	0.0133	0.2138	500	500	500	0	0	1	-360	360;
	4	5	0.0008	0.0128	0.1342	600	600	600	0	0	1	-360	360;
	4	14	0.0008	0.0129	0.1382	500	500	500	0	0	1	-360	360;
	5	6	0.0002	0.0026	0.0434	1200	1200	1200	0	0	1	-360	360;
	5	8	0.0008	0.0112	0.1476	900	900	900	0	0	1	-360	360;
	6	7	0.0006	0.0092	0.113	900	900	900	0	0	1	-360	360;
	6	11	0.0007	0.0082	0.1389	480	480	480	0	0	1	-360	360;
	6	31	0	0.025	0	1800	1800	1800	1.07	0	1	-360	360;
	7	8	0.0004	0.0046	0.078	900	900	900	0	0	1	-360	360;
	8	9	0.0023	0.0363	0.3804	900	900	900	0	0	1	-360	360;
	9	39	0.001	0.025	1.2	900	900	900	0	0	1	-360	360;
	10	11	0.0004	0.0043	0.0729	600	600	600	0	0	1	-360	360;
	10	13	0.0004	0.0043	0.0729	600	600	600	0	0	1	-360	360;
	10	32	0	0.02	0	900	900	2500	1.07	0	1	-360	360;
	12	11	0.0016	0.0435	0	500	500	500	1.006	0	1	-360	360;
	12	13	0.0016	0.0435	0	500	500	500	1.006	0	1	-360	360;
	13	14	0.0009	0.0101	0.1723	600	600	600	0	0	1	-360	360;
	14	15	0.0018	0.0217	0.366	600	600	600	0	0	1	-360	360;
	15	16	0.0009	0.0094	0.171	600	600	600	0	0	1	-360	360;
	16	17	0.0007	0.0089	0.1342	600	600	600	0	0	1	-360	360;
	16	19	0.0016	0.0195	0.304	600	600	2500	0	0	1	-360	360;
	16	21	0.0008	0.0135	0.2548	600	600	600	0	0	1	-360	360;
	16	24	0.0003	0.0059	0.068	600	600	600	0	0	1	-360	360;
	17	18	0.0007	0.0082	0.1319	600	600	600	0	0	1	-360	360;
	17	27	0.0013	0.0173	0.3216	600	600	600	0	0	1	-360	360;
	19	20	0.0007	0.0138	0	900	900	2500	1.06	0	1	-360	360;
	19	33	0.0007	0.0142	0	900	900	2500	1.07	0	1	-360	360;
	20	34	0.0009	0.018	0	900	900	2500	1.009	0	1	-360	360;
	21	22	0.0008	0.014	0.2565	900	900	900	0	0	1	-360	360;
	22	23	0.0006	0.0096	0.1846	600	600	600	0	0	0	-360	360;
	22	35	0	0.0143	0	900	900	2500	1.025	0	1	-360	360;
	23	24	0.0022	0.035	0.361	600	600	600	0	0	0	-360	360;
	23	36	0.0005	0.0272	0	900	900	2500	1	0	0	-360	360;
	25	26	0.0032	0.0323	0.531	600	600	600	0	0	1	-360	360;
	25	37	0.0006	0.0232	0	900	900	2500	1.025	0	1	-360	360;
	26	27	0.0014	0.0147	0.2396	600	600	600	0	0	1	-360	360;
	26	28	0.0043	0.0474	0.7802	600	600	600	0	0	1	-360	360;
	26	29	0.0057	0.0625	1.029	600	600	600	0	0	1	-360	360;
	28	29	0.0014	0.0151	0.249	600	600	600	0	0	1	-360	360;
	29	38	0.0008	0.0156	0	1200	1200	2500	1.025	0	1	-360	360;
];
mpc.gencost = [
	2	0	0	3	0.01	0.3	0.2;
	2	0	0	3	0.01	0.3	0.2;
	2	0	0	3	0.01	0.3	0.2;
	2	0	0	3	0.01	0.3	0.2;
	2	0	0	3	0.01	0.3	0.2;
	2	0	0	3	0.01	0.3	0.2;
	2	0	0	3	0.01	0.3	0.2;
	2	0	0	3	0.01	0.3	0.2;
	2	0	0	3	0.01	0.3	0.2;
	2	0	0	3	0.01	0.3	0.2;
];
